0
  -OEChem-04251722553D

  8  7  0     0  0  0  0  0  0999 V2000
   -1.4970   -0.9680   -0.0020 C   0  0  0  0  0  0  0  0  0  0  0  0
    0.9060   -0.8880   -0.2640 O   0  0  0  0  0  0  0  0  0  0  0  0
   -0.2010   -0.2120   -0.0270 C   0  0  0  0  0  0  0  0  0  0  0  0
   -0.1260    1.0010    0.1660 O   0  0  0  0  0  0  0  0  0  0  0  0
   -2.3230   -0.2870    0.1850 H   0  0  0  0  0  0  0  0  0  0  0  0
   -1.4610   -1.7300    0.7790 H   0  0  0  0  0  0  0  0  0  0  0  0
   -1.6440   -1.4800   -0.9560 H   0  0  0  0  0  0  0  0  0  0  0  0
    1.7350   -0.3050   -0.2610 H   0  0  0  0  0  0  0  0  0  0  0  0
  1  3  1  0  0  0  0
  1  5  1  0  0  0  0
  1  6  1  0  0  0  0
  1  7  1  0  0  0  0
  2  3  1  0  0  0  0
  2  8  1  0  0  0  0
  3  4  2  0  0  0  0
M  END
$$$$
15
  -OEChem-04251722553D

  8  7  0     0  0  0  0  0  0999 V2000
   -1.4970   -0.9680   -0.0020 C   0  0  0  0  0  0  0  0  0  0  0  0
    0.9060   -0.8880   -0.2640 O   0  0  0  0  0  0  0  0  0  0  0  0
   -0.2010   -0.2120   -0.0270 C   0  0  0  0  0  0  0  0  0  0  0  0
   -0.1260    1.0010    0.1660 O   0  0  0  0  0  0  0  0  0  0  0  0
   -2.3230   -0.2870    0.1850 H   0  0  0  0  0  0  0  0  0  0  0  0
   -1.4610   -1.7300    0.7790 H   0  0  0  0  0  0  0  0  0  0  0  0
   -1.6440   -1.4800   -0.9560 H   0  0  0  0  0  0  0  0  0  0  0  0
    1.7440   -0.3720   -0.0270 H   0  0  0  0  0  0  0  0  0  0  0  0
  1  3  1  0  0  0  0
  1  5  1  0  0  0  0
  1  6  1  0  0  0  0
  1  7  1  0  0  0  0
  2  3  1  0  0  0  0
  2  8  1  0  0  0  0
  3  4  2  0  0  0  0
M  END
$$$$
